resultados/Relatorios/107-Barras/107-Barras-report.txt
January 06, 2023


relatório do sistema 107-Barras

solução do fluxo de potência via método do fluxo de potência continuado

opções de controle ativadas: QLIMs 

opções de relatório ativadas: RBARRA 



vv relatório de convergência vv

       |  FREQ  |  ERROR  | BARRA |  ERROR  | BARRA |  ERROR  | BARRA |
| ITER |    Hz  |     MW  |   NUM |   Mvar  |   NUM |   CTRL  |   NUM |
-----------------------------------------------------------------------
|  1   | 60.000 | 2082.022 |  933  | 461.700 |  48   |  0.000  |  12   |
|  2   | 60.000 |  9.367  |  933  | 11.267  |  824  |  0.000  |  48   |
|  3   | 60.000 |  0.053  |  939  |  0.028  |  824  |  0.000  |  106  |
|  4   | 60.000 |  0.000  |  939  |  0.000  |  933  |  0.000  |  106  |
-----------------------------------------------------------------------

 * * * * SISTEMA CONVERGENTE * * * * 

       |  FREQ  |  ERROR  | BARRA |  ERROR  | BARRA |  ERROR  | BARRA |
| ITER |    Hz  |     MW  |   NUM |   Mvar  |   NUM |   CTRL  |   NUM |
-----------------------------------------------------------------------
|  4   | 60.000 |  0.000  |  939  |  0.000  |  933  |  0.000  |  106  |
-----------------------------------------------------------------------



vv relatório de barras vv área 1 vv

|          BARRA          |         TENSAO       |        GERACAO      |         CARGA       |   SHUNT  |
| NUM |     NOME    |  T  |    MOD    |    ANG   |    MW    |   Mvar   |    MW    |   Mvar   |    Mvar  |
---------------------------------------------------------------------------------------------------------
| 12  | LCBARRET-4GR |  1  |   1.000   |  -24.15  | 300.000  | -202.604 |  0.000   |  0.000   |  0.000   |
---------------------------------------------------------------------------------------------------------
| 16  | FURNAS---5GR |  1  |   1.000   |  -26.17  | 800.000  | -133.885 |  0.000   |  0.000   |  0.000   |
---------------------------------------------------------------------------------------------------------
| 18  | ITUMBIAR-6GR |  2  |   1.020   |  -24.00  | 995.770  | -399.592 |  0.000   |  0.000   |  0.000   |
---------------------------------------------------------------------------------------------------------
| 20  | MARIMBON-5GR |  1  |   1.010   |  -22.36  | 900.000  | -321.011 |  0.000   |  0.000   |  0.000   |
---------------------------------------------------------------------------------------------------------
| 22  | M.MOR.A--3GR |  1  |   1.000   |  -19.85  | 150.000  | -20.568  |  0.000   |  0.000   |  0.000   |
---------------------------------------------------------------------------------------------------------
| 35  | CORUMBA--2GR |  1  |   1.000   |  -26.91  | 200.000  | -49.633  |  0.000   |  0.000   |  0.000   |
---------------------------------------------------------------------------------------------------------
| 48  | IBIUNA---4CS |  1  |   1.000   |  -42.72  |  0.000   | -461.066 |  0.000   |  0.000   |  0.000   |
---------------------------------------------------------------------------------------------------------
| 86  | IBIUNA---345 |  0  |   1.033   |  -42.72  |  -0.000  |  0.000   |  71.135  |  1.293   |  0.000   |
---------------------------------------------------------------------------------------------------------
| 100 | MARIMBON-500 |  0  |   1.056   |  -28.48  |  -0.000  |  -0.000  |  0.000   |  0.000   |  0.000   |
---------------------------------------------------------------------------------------------------------

|          BARRA          |         TENSAO       |        GERACAO      |         CARGA       |   SHUNT  |
| NUM |     NOME    |  T  |    MOD    |    ANG   |    MW    |   Mvar   |    MW    |   Mvar   |    Mvar  |
---------------------------------------------------------------------------------------------------------
| 101 | ARARAQUA-500 |  0  |   1.069   |  -36.28  |  0.000   |  0.000   |  0.000   |  0.000   | -199.411 |
---------------------------------------------------------------------------------------------------------
| 102 | POCOS----500 |  0  |   1.059   |  -42.95  |  -0.000  |  0.000   |  0.000   |  0.000   | -94.330  |
---------------------------------------------------------------------------------------------------------
| 103 | CAMPINAS-500 |  0  |   1.072   |  -43.23  |  0.000   |  0.000   |  0.000   |  0.000   |  0.000   |
---------------------------------------------------------------------------------------------------------
| 104 | C.PAULIS-500 |  0  |   1.061   |  -51.70  |  -0.000  |  -0.000  | 980.804  | 253.284  |  0.000   |
---------------------------------------------------------------------------------------------------------
| 106 | ADRIANO--500 |  0  |   1.050   |  -52.57  |  -0.000  |  0.000   |  0.000   |  0.000   | -87.134  |
---------------------------------------------------------------------------------------------------------
| 120 | P.CALDAS-345 |  0  |   1.041   |  -41.22  |  0.000   |  0.000   | 194.005  |  97.003  |  0.000   |
---------------------------------------------------------------------------------------------------------
| 122 | IBIUNA---500 |  0  |   1.067   |  -41.65  |  -0.000  |  0.000   | 215.561  |  40.957  |  0.000   |
---------------------------------------------------------------------------------------------------------
| 123 | CAMPINAS-345 |  0  |   1.035   |  -46.01  |  -0.000  |  0.000   | 485.013  | 188.616  |  0.000   |
---------------------------------------------------------------------------------------------------------
| 126 | GUARULHOS345 |  0  |   1.037   |  -43.46  |  0.000   |  -0.000  | 312.564  | 102.392  |  0.000   |
---------------------------------------------------------------------------------------------------------
| 131 | M.MORAES-345 |  0  |   1.027   |  -27.26  |  0.000   |  0.000   |  0.000   |  0.000   |  0.000   |
---------------------------------------------------------------------------------------------------------

|          BARRA          |         TENSAO       |        GERACAO      |         CARGA       |   SHUNT  |
| NUM |     NOME    |  T  |    MOD    |    ANG   |    MW    |   Mvar   |    MW    |   Mvar   |    Mvar  |
---------------------------------------------------------------------------------------------------------
| 134 | LBARRETO-345 |  0  |   1.027   |  -26.38  |  -0.000  |  -0.000  |  0.000   |  0.000   |  0.000   |
---------------------------------------------------------------------------------------------------------
| 136 | FURNAS---345 |  0  |   1.028   |  -33.04  |  0.000   |  -0.000  |  58.202  |  24.790  |  0.000   |
---------------------------------------------------------------------------------------------------------
| 138 | ITUTINGA-345 |  0  |   1.036   |  -44.10  |  -0.000  |  -0.000  |  77.602  |  36.645  |  0.000   |
---------------------------------------------------------------------------------------------------------
| 140 | ADRIANO--345 |  0  |   1.023   |  -53.68  |  0.000   |  -0.000  | 754.464  | 269.452  |  0.000   |
---------------------------------------------------------------------------------------------------------
| 210 | ITUMBIARA500 |  0  |   1.048   |  -27.56  |  -0.000  |  0.000   |  0.000   |  0.000   |  0.000   |
---------------------------------------------------------------------------------------------------------
| 213 | MARIMBON-345 |  0  |   1.050   |  -28.74  |  -0.000  |  0.000   | 100.236  |  42.034  |  0.000   |
---------------------------------------------------------------------------------------------------------
| 216 | PCOLOMBIA345 |  0  |   1.049   |  -27.83  |  0.000   |  -0.000  |  57.124  |  26.945  |  0.000   |
---------------------------------------------------------------------------------------------------------
| 217 | ITUMBIARA345 |  0  |   1.050   |  -32.26  |  -0.000  |  0.000   | 392.321  |  62.513  |  0.000   |
---------------------------------------------------------------------------------------------------------
| 218 | BANDEIRA-345 |  0  |   1.025   |  -40.04  |  0.000   |  -0.000  | 646.684  | 215.561  |  0.000   |
---------------------------------------------------------------------------------------------------------
| 219 | B.SUL----345 |  0  |   1.028   |  -38.91  |  -0.000  |  -0.000  |  0.000   |  0.000   |  0.000   |
---------------------------------------------------------------------------------------------------------

|          BARRA          |         TENSAO       |        GERACAO      |         CARGA       |   SHUNT  |
| NUM |     NOME    |  T  |    MOD    |    ANG   |    MW    |   Mvar   |    MW    |   Mvar   |    Mvar  |
---------------------------------------------------------------------------------------------------------
| 220 | CORUMBA--345 |  0  |   1.052   |  -31.93  |  0.000   |  0.000   |  0.000   |  0.000   |  0.000   |
---------------------------------------------------------------------------------------------------------
| 225 | ITUMBIARA230 |  0  |   1.008   |  -34.59  |  0.000   |  -0.000  |  0.000   |  0.000   |  0.000   |
---------------------------------------------------------------------------------------------------------
| 228 | B.SUL----230 |  0  |   1.016   |  -40.61  |  0.000   |  0.000   |  92.691  |  36.645  |  0.000   |
---------------------------------------------------------------------------------------------------------
| 233 | SAMAMBAI-500 |  0  |   1.039   |  -36.20  |  0.000   |  -0.000  |  0.000   |  0.000   |  0.000   |
---------------------------------------------------------------------------------------------------------
| 234 | SAMAMBAI-345 |  0  |   1.027   |  -39.01  |  0.000   |  -0.000  | 1077.806 | 377.232  |  0.000   |
---------------------------------------------------------------------------------------------------------
| 300 | EMBORCAC-3GR |  1  |   1.020   |  -18.95  | 700.000  | -183.587 |  0.000   |  0.000   |  0.000   |
---------------------------------------------------------------------------------------------------------
| 301 | JAGUARA--4GR |  1  |   1.010   |  -19.40  | 300.000  | -128.483 |  0.000   |  0.000   |  0.000   |
---------------------------------------------------------------------------------------------------------
| 302 | N.PONTE--3GR |  1  |   1.020   |  -18.28  | 400.000  | -124.937 |  0.000   |  0.000   |  0.000   |
---------------------------------------------------------------------------------------------------------
| 303 | S.SIMAO--4GR |  1  |   1.020   |  -24.28  | 200.000  | -279.133 |  0.000   |  0.000   |  0.000   |
---------------------------------------------------------------------------------------------------------

|          BARRA          |         TENSAO       |        GERACAO      |         CARGA       |   SHUNT  |
| NUM |     NOME    |  T  |    MOD    |    ANG   |    MW    |   Mvar   |    MW    |   Mvar   |    Mvar  |
---------------------------------------------------------------------------------------------------------
| 305 | V.GRANDE-4GR |  1  |   1.000   |  -22.12  | 300.000  | -60.373  |  0.000   |  0.000   |  0.000   |
---------------------------------------------------------------------------------------------------------
| 320 | EMBORCAC-500 |  0  |   1.049   |  -24.05  |  0.000   |  0.000   |  0.000   |  0.000   |  0.000   |
---------------------------------------------------------------------------------------------------------
| 325 | JAGUARA--500 |  0  |   1.046   |  -23.69  |  -0.000  |  0.000   |  0.000   |  0.000   |  0.000   |
---------------------------------------------------------------------------------------------------------
| 326 | JAGUARA--345 |  0  |   1.033   |  -25.91  |  0.000   |  -0.000  | 295.319  | 112.092  |  0.000   |
---------------------------------------------------------------------------------------------------------
| 360 | NPONTE---500 |  0  |   1.046   |  -22.44  |  0.000   |  -0.000  |  0.000   |  0.000   |  0.000   |
---------------------------------------------------------------------------------------------------------
| 370 | SSIMAO---500 |  0  |   1.049   |  -25.41  |  -0.000  |  -0.000  |  0.000   |  0.000   |  0.000   |
---------------------------------------------------------------------------------------------------------
| 396 | VGRANDE--345 |  0  |   1.041   |  -25.84  |  0.000   |  0.000   |  0.000   |  0.000   |  0.000   |
---------------------------------------------------------------------------------------------------------
| 500 | A.VERMEL-4GR |  1  |   1.020   |  -21.56  | 800.000  | -118.064 |  0.000   |  0.000   |  0.000   |
---------------------------------------------------------------------------------------------------------
| 535 | AVERMELHA500 |  0  |   1.035   |  -26.01  |  0.000   |  0.000   |  0.000   |  0.000   |  0.000   |
---------------------------------------------------------------------------------------------------------
| 536 | AVERMELH-440 |  0  |   1.023   |  -28.80  |  -0.000  |  0.000   | 754.464  | 161.671  |  0.000   |
---------------------------------------------------------------------------------------------------------
| 1503 | ITAJUBA--500 |  0  |   1.061   |  -49.51  |  0.000   |  0.000   |  0.000   |  0.000   |  0.000   |
---------------------------------------------------------------------------------------------------------
| 1504 | ITAJUBA--138 |  0  |   1.026   |  -53.48  |  -0.000  |  0.000   | 156.282  |  67.902  |  0.000   |
---------------------------------------------------------------------------------------------------------



vv relatório de barras vv área 3 vv

|          BARRA          |         TENSAO       |        GERACAO      |         CARGA       |   SHUNT  |
| NUM |     NOME    |  T  |    MOD    |    ANG   |    MW    |   Mvar   |    MW    |   Mvar   |    Mvar  |
---------------------------------------------------------------------------------------------------------
| 21  | MANSO----3GR |  1  |   1.000   |  -62.32  | 140.000  | -22.089  |  0.000   |  0.000   |  0.000   |
---------------------------------------------------------------------------------------------------------
| 231 | R.VERDE-230 |  0  |   1.010   |  -49.30  |  -0.000  |  0.000   |  96.679  |  34.382  |  0.000   |
---------------------------------------------------------------------------------------------------------
| 4501 | B.PEIXE--230 |  0  |   1.026   |  -60.74  |  0.000   |  -0.000  |  33.843  |  7.652   | -33.282  |
---------------------------------------------------------------------------------------------------------
| 4521 | ITIQUIRA-230 |  0  |   1.034   |  -66.41  |  0.000   |  0.000   |  0.000   |  0.000   |  0.000   |
---------------------------------------------------------------------------------------------------------
| 4522 | RONDONOP-230 |  0  |   1.032   |  -68.51  |  -0.000  |  0.000   |  0.000   |  0.000   | -17.042  |
---------------------------------------------------------------------------------------------------------

|          BARRA          |         TENSAO       |        GERACAO      |         CARGA       |   SHUNT  |
| NUM |     NOME    |  T  |    MOD    |    ANG   |    MW    |   Mvar   |    MW    |   Mvar   |    Mvar  |
---------------------------------------------------------------------------------------------------------
| 4523 | ITIQUIR--2GR |  1  |   1.010   |  -60.72  |  50.000  |  -9.078  |  0.000   |  0.000   |  0.000   |
---------------------------------------------------------------------------------------------------------
| 4530 | COXIPO-CE-12 |  1  |   1.020   |  -73.07  |  0.000   | -14.955  |  0.000   |  0.000   |  0.000   |
---------------------------------------------------------------------------------------------------------
| 4532 | COXIPO-230  |  0  |   1.041   |  -73.07  |  0.000   |  0.000   |  0.000   |  0.000   |  0.000   |
---------------------------------------------------------------------------------------------------------
| 4533 | COXIPO-138  |  0  |   1.014   |  -73.41  |  0.000   |  -0.000  |  81.267  |  17.353  |  0.000   |
---------------------------------------------------------------------------------------------------------
| 4542 | NOBRES-230  |  0  |   1.025   |  -72.27  |  -0.000  |  0.000   |  0.000   |  0.000   |  0.000   |
---------------------------------------------------------------------------------------------------------
| 4552 | N.MUTUM-230 |  0  |   1.007   |  -79.88  |  0.000   |  -0.000  |  13.580  |  1.293   | -17.463  |
---------------------------------------------------------------------------------------------------------
| 4562 | SORRISO-230 |  0  |   1.012   |  -88.16  |  0.000   |  -0.000  |  25.652  |  7.976   |  0.000   |
---------------------------------------------------------------------------------------------------------
| 4572 | LUCAS-RV230 |  0  |   1.009   |  -85.22  |  -0.000  |  0.000   |  19.401  |  6.898   |  0.000   |
---------------------------------------------------------------------------------------------------------
| 4582 |  SINOP-230  |  0  |   1.018   |  -91.00  |  -0.000  |  -0.000  |  70.596  |  17.999  |  24.842  |
---------------------------------------------------------------------------------------------------------
| 4592 |  MANSO-230  |  0  |   1.018   |  -67.37  |  -0.000  |  -0.000  |  0.000   |  0.000   |  0.000   |
---------------------------------------------------------------------------------------------------------

|          BARRA          |         TENSAO       |        GERACAO      |         CARGA       |   SHUNT  |
| NUM |     NOME    |  T  |    MOD    |    ANG   |    MW    |   Mvar   |    MW    |   Mvar   |    Mvar  |
---------------------------------------------------------------------------------------------------------
| 4596 | CBA--GAS-2GR |  1  |   1.000   |  -68.52  | 230.000  | -28.657  |  0.000   |  0.000   |  0.000   |
---------------------------------------------------------------------------------------------------------
| 4623 | RONDONOP-138 |  0  |   1.018   |  -71.44  |  -0.000  |  0.000   | 138.175  |  43.931  |  0.000   |
---------------------------------------------------------------------------------------------------------
| 4703 | CUIABA-138  |  0  |   1.003   |  -74.53  |  -0.000  |  0.000   | 196.268  |  32.065  |  0.000   |
---------------------------------------------------------------------------------------------------------
| 4804 | GUAPORE--2GR |  1  |   1.000   |  -74.86  |  50.000  | -16.771  |  0.000   |  0.000   |  0.000   |
---------------------------------------------------------------------------------------------------------
| 4805 | GUAPORE--138 |  0  |   1.025   |  -78.59  |  0.000   |  0.000   |  0.000   |  0.000   |  0.000   |
---------------------------------------------------------------------------------------------------------
| 4807 |  JAURU-138  |  0  |   1.025   |  -79.85  |  0.000   |  0.000   | 138.929  |  39.124  |  0.000   |
---------------------------------------------------------------------------------------------------------
| 4862 |  JAURU-230  |  0  |   1.046   |  -78.13  |  -0.000  |  0.000   |  0.000   |  0.000   | -30.630  |
---------------------------------------------------------------------------------------------------------



vv relatório de barras vv área 2 vv

|          BARRA          |         TENSAO       |        GERACAO      |         CARGA       |   SHUNT  |
| NUM |     NOME    |  T  |    MOD    |    ANG   |    MW    |   Mvar   |    MW    |   Mvar   |    Mvar  |
---------------------------------------------------------------------------------------------------------

|          BARRA          |         TENSAO       |        GERACAO      |         CARGA       |   SHUNT  |
| NUM |     NOME    |  T  |    MOD    |    ANG   |    MW    |   Mvar   |    MW    |   Mvar   |    Mvar  |
---------------------------------------------------------------------------------------------------------
| 800 | GBMUNHOZ-2GR |  1  |   1.020   |  -7.11   | 1100.000 | 138.398  |  0.000   |  0.000   |  0.000   |
---------------------------------------------------------------------------------------------------------
| 808 | SCAXIAS--4GR |  1  |   1.020   |  +3.50   | 1150.000 | 114.374  |  0.000   |  0.000   |  0.000   |
---------------------------------------------------------------------------------------------------------
| 810 | SSEGREDO-4GR |  1  |   1.020   |  -4.03   | 1200.000 | -72.192  |  0.000   |  0.000   |  0.000   |
---------------------------------------------------------------------------------------------------------
| 814 | BATEIAS--230 |  0  |   0.996   |  -37.54  |  0.000   |  -0.000  | 792.619  | 205.861  |  0.000   |
---------------------------------------------------------------------------------------------------------
| 824 | GBMUNHOZ-500 |  0  |   1.038   |  -17.41  |  -0.000  |  -0.000  |  0.000   |  0.000   |  0.000   |
---------------------------------------------------------------------------------------------------------
| 834 | S.MATEUS-230 |  0  |   0.991   |  -28.79  |  0.000   |  -0.000  |  14.443  |  4.527   |  0.000   |
---------------------------------------------------------------------------------------------------------
| 839 | CASCAVEL-230 |  0  |   0.999   |  -6.40   |  -0.000  |  0.000   |  0.000   |  0.000   |  0.000   |
---------------------------------------------------------------------------------------------------------
| 840 | CASCAVEL-138 |  0  |   0.986   |  -9.39   |  0.000   |  0.000   | 171.371  |  38.801  |  0.000   |
---------------------------------------------------------------------------------------------------------
| 848 | FCHOPIM--138 |  0  |   0.999   |  -5.52   |  0.000   |  -0.000  | 101.314  |  19.401  |  0.000   |
---------------------------------------------------------------------------------------------------------
| 856 | SEGREDO--500 |  0  |   1.035   |  -10.89  |  -0.000  |  -0.000  |  0.000   |  0.000   |  0.000   |
---------------------------------------------------------------------------------------------------------

|          BARRA          |         TENSAO       |        GERACAO      |         CARGA       |   SHUNT  |
| NUM |     NOME    |  T  |    MOD    |    ANG   |    MW    |   Mvar   |    MW    |   Mvar   |    Mvar  |
---------------------------------------------------------------------------------------------------------
| 895 | BATEIAS--500 |  0  |   1.044   |  -35.29  |  -0.000  |  0.000   |  0.000   |  0.000   |  0.000   |
---------------------------------------------------------------------------------------------------------
| 896 | CASCAVELO500 |  0  |   1.028   |  -4.28   |  0.000   |  -0.000  |  0.000   |  0.000   |  0.000   |
---------------------------------------------------------------------------------------------------------
| 897 | SCAXIAS--500 |  0  |   1.039   |  -3.01   |  -0.000  |  -0.000  |  0.000   |  0.000   |  0.000   |
---------------------------------------------------------------------------------------------------------
| 898 | FCHOPIM--230 |  0  |   1.012   |  -2.13   |  0.000   |  0.000   |  0.000   |  0.000   |  0.000   |
---------------------------------------------------------------------------------------------------------
| 904 | ITA------4GR |  1  |   1.020   |  -15.12  | 700.000  | -236.393 |  0.000   |  0.000   |  0.000   |
---------------------------------------------------------------------------------------------------------
| 915 | MACHADIN-2GR |  1  |   1.020   |  -12.98  | 700.000  | -109.427 |  0.000   |  0.000   |  0.000   |
---------------------------------------------------------------------------------------------------------
| 919 | SOSOR1A4-4GR |  1  |   1.000   |  +5.76   | 700.000  |  89.038  |  0.000   |  0.000   |  0.000   |
---------------------------------------------------------------------------------------------------------
| 925 | SSANTIAG-3GR |  1  |   1.020   |  -0.12   | 950.000  |  73.052  |  0.000   |  0.000   |  0.000   |
---------------------------------------------------------------------------------------------------------
| 933 | AREIA----500 |  0  |   1.038   |  -17.78  |  0.000   |  0.000   |  0.000   |  0.000   |  0.000   |
---------------------------------------------------------------------------------------------------------
| 934 | AREIA----230 |  0  |   0.998   |  -17.95  |  0.000   |  -0.000  | 255.440  |  63.591  |  0.000   |
---------------------------------------------------------------------------------------------------------

|          BARRA          |         TENSAO       |        GERACAO      |         CARGA       |   SHUNT  |
| NUM |     NOME    |  T  |    MOD    |    ANG   |    MW    |   Mvar   |    MW    |   Mvar   |    Mvar  |
---------------------------------------------------------------------------------------------------------
| 938 | BLUMENAU-500 |  0  |   1.043   |  -37.34  |  -0.000  |  0.000   |  0.000   |  0.000   |  0.000   |
---------------------------------------------------------------------------------------------------------
| 939 | BLUMENAU-230 |  0  |   0.996   |  -39.75  |  0.000   |  -0.000  | 1238.399 |  57.188  |  0.000   |
---------------------------------------------------------------------------------------------------------
| 955 | CNOVOS---500 |  0  |   1.058   |  -23.70  |  -0.000  |  0.000   |  0.000   |  0.000   |  0.000   |
---------------------------------------------------------------------------------------------------------
| 959 | CURITIBA-500 |  0  |   1.033   |  -35.00  |  0.000   |  -0.000  |  0.000   |  0.000   | 101.012  |
---------------------------------------------------------------------------------------------------------
| 960 | CURITIBA-230 |  0  |   0.996   |  -37.52  |  -0.000  |  0.000   | 910.423  | 505.599  |  0.000   |
---------------------------------------------------------------------------------------------------------
| 964 | CAXIAS---500 |  0  |   1.037   |  -31.02  |  -0.000  |  0.000   |  0.000   |  0.000   |  0.000   |
---------------------------------------------------------------------------------------------------------
| 965 | CAXIAS---230 |  0  |   1.003   |  -33.48  |  0.000   |  -0.000  | 814.390  |  60.616  |  0.000   |
---------------------------------------------------------------------------------------------------------
| 976 | GRAVATAI-500 |  0  |   1.012   |  -33.70  |  -0.000  |  -0.000  |  0.000   |  0.000   |  0.000   |
---------------------------------------------------------------------------------------------------------
| 995 | ITA------500 |  0  |   1.050   |  -19.44  |  -0.000  |  -0.000  |  0.000   |  0.000   |  0.000   |
---------------------------------------------------------------------------------------------------------
| 1015 | JOINVILLE230 |  0  |   0.998   |  -39.70  |  -0.000  |  -0.000  |  75.446  |  2.156   |  0.000   |
---------------------------------------------------------------------------------------------------------

|          BARRA          |         TENSAO       |        GERACAO      |         CARGA       |   SHUNT  |
| NUM |     NOME    |  T  |    MOD    |    ANG   |    MW    |   Mvar   |    MW    |   Mvar   |    Mvar  |
---------------------------------------------------------------------------------------------------------
| 1030 | MACHADIN-500 |  0  |   1.052   |  -20.73  |  0.000   |  0.000   |  0.000   |  0.000   |  0.000   |
---------------------------------------------------------------------------------------------------------
| 1047 | SOSORIO--230 |  0  |   1.017   |  -1.14   |  0.000   |  -0.000  |  0.000   |  0.000   |  0.000   |
---------------------------------------------------------------------------------------------------------
| 1060 | SSANTIAG-500 |  0  |   1.043   |  -8.08   |  -0.000  |  0.000   |  0.000   |  0.000   |  0.000   |
---------------------------------------------------------------------------------------------------------
| 1210 | GRAVATAI-230 |  0  |   1.003   |  -36.45  |  0.000   |  -0.000  | 1323.546 | 458.068  |  0.000   |
---------------------------------------------------------------------------------------------------------
| 2458 | CASCAVELO230 |  0  |   1.001   |  -6.63   |  0.000   |  0.000   | 434.356  | 135.804  |  0.000   |
---------------------------------------------------------------------------------------------------------



vv relatório de execução do fluxo de potência continuado vv

              | INCREMENTO DE CARGA |     CARGA TOTAL     |         PASSO        |
| CASO | ITER |  ATIVA   |  REATIVA |  ATIVA   |  REATIVA | VARIÁVEL | VALOR [%] |
----------------------------------------------------------------------------------
|  0   |  4   |   0.0    |   0.0    | 12681.700 | 3597.410 |  lambda  |    0.5    |
----------------------------------------------------------------------------------
|  1   |  4   |  0.500   |  0.500   | 12745.108 | 3615.397 |  lambda  |   +0.50   |
----------------------------------------------------------------------------------
|  2   |  4   |  1.000   |  1.000   | 12808.517 | 3633.384 |  lambda  |   +0.50   |
----------------------------------------------------------------------------------
|  3   |  4   |  1.500   |  1.500   | 12871.925 | 3651.371 |  lambda  |   +0.50   |
----------------------------------------------------------------------------------
|  4   |  4   |  2.000   |  2.000   | 12935.334 | 3669.358 |  lambda  |   +0.50   |
----------------------------------------------------------------------------------

              | INCREMENTO DE CARGA |     CARGA TOTAL     |         PASSO        |
| CASO | ITER |  ATIVA   |  REATIVA |  ATIVA   |  REATIVA | VARIÁVEL | VALOR [%] |
----------------------------------------------------------------------------------
|  5   |  4   |  2.500   |  2.500   | 12998.742 | 3687.345 |  lambda  |   +0.50   |
----------------------------------------------------------------------------------
|  6   |  4   |  3.000   |  3.000   | 13062.151 | 3705.332 |  lambda  |   +0.50   |
----------------------------------------------------------------------------------
|  7   |  4   |  3.500   |  3.500   | 13125.559 | 3723.319 |  lambda  |   +0.50   |
----------------------------------------------------------------------------------
|  8   |  4   |  4.000   |  4.000   | 13188.968 | 3741.306 |  lambda  |   +0.50   |
----------------------------------------------------------------------------------
|  9   |  4   |  4.500   |  4.500   | 13252.376 | 3759.293 |  lambda  |   +0.50   |
----------------------------------------------------------------------------------

              | INCREMENTO DE CARGA |     CARGA TOTAL     |         PASSO        |
| CASO | ITER |  ATIVA   |  REATIVA |  ATIVA   |  REATIVA | VARIÁVEL | VALOR [%] |
----------------------------------------------------------------------------------
|  10  |  4   |  5.000   |  5.000   | 13315.785 | 3777.281 |  lambda  |   +0.50   |
----------------------------------------------------------------------------------
|  11  |  4   |  5.500   |  5.500   | 13379.193 | 3795.268 |  lambda  |   +0.50   |
----------------------------------------------------------------------------------
|  12  |  4   |  6.000   |  6.000   | 13442.602 | 3813.255 |  lambda  |   +0.50   |
----------------------------------------------------------------------------------
|  13  |  4   |  6.500   |  6.500   | 13506.010 | 3831.242 |  lambda  |   +0.50   |
----------------------------------------------------------------------------------
|  14  |  4   |  7.000   |  7.000   | 13569.419 | 3849.229 |  lambda  |   +0.50   |
----------------------------------------------------------------------------------

              | INCREMENTO DE CARGA |     CARGA TOTAL     |         PASSO        |
| CASO | ITER |  ATIVA   |  REATIVA |  ATIVA   |  REATIVA | VARIÁVEL | VALOR [%] |
----------------------------------------------------------------------------------
|  15  |  5   |  7.500   |  7.500   | 13632.827 | 3867.216 |  lambda  |   +0.50   |
----------------------------------------------------------------------------------
|  16  |  4   |  7.625   |  7.625   | 13648.680 | 3871.713 |  lambda  |   +0.12   |
----------------------------------------------------------------------------------
|  17  |  4   |  7.750   |  7.750   | 13664.532 | 3876.209 |  lambda  |   +0.12   |
----------------------------------------------------------------------------------
|  18  |  4   |  7.766   |  7.766   | 13666.513 | 3876.771 |  lambda  |   +0.02   |
----------------------------------------------------------------------------------
|  19  |  3   |  7.773   |  7.773   | 13667.504 | 3877.052 |  lambda  |   +0.01   |
----------------------------------------------------------------------------------

              | INCREMENTO DE CARGA |     CARGA TOTAL     |         PASSO        |
| CASO | ITER |  ATIVA   |  REATIVA |  ATIVA   |  REATIVA | VARIÁVEL | VALOR [%] |
----------------------------------------------------------------------------------
|  20  |  3   |  7.777   |  7.777   | 13667.999 | 3877.193 |  lambda  |   +0.00   |
----------------------------------------------------------------------------------
|  21  |  3   |  7.779   |  7.779   | 13668.247 | 3877.263 |  lambda  |   +0.00   |
----------------------------------------------------------------------------------
|  22  |  3   |  7.780   |  7.780   | 13668.371 | 3877.298 |  lambda  |   +0.00   |
----------------------------------------------------------------------------------
|  23  |  3   |  7.781   |  7.781   | 13668.402 | 3877.307 |  lambda  |   +0.00   |
----------------------------------------------------------------------------------
|  24  |  2   |  7.781   |  7.781   | 13668.410 | 3877.309 |  lambda  |   +0.00   |
----------------------------------------------------------------------------------

              | INCREMENTO DE CARGA |     CARGA TOTAL     |         PASSO        |
| CASO | ITER |  ATIVA   |  REATIVA |  ATIVA   |  REATIVA | VARIÁVEL | VALOR [%] |
----------------------------------------------------------------------------------
|  25  |  2   |  7.781   |  7.781   | 13668.412 | 3877.310 |  lambda  |   +0.00   |
----------------------------------------------------------------------------------
|  26  |  2   |  7.781   |  7.781   | 13668.414 | 3877.310 |  lambda  |   +0.00   |
----------------------------------------------------------------------------------
|  27  |  2   |  7.781   |  7.781   | 13668.414 | 3877.310 |  lambda  |   +0.00   |
----------------------------------------------------------------------------------
|  28  |  2   |  7.781   |  7.781   | 13668.414 | 3877.311 |  lambda  |   +0.00   |
----------------------------------------------------------------------------------
|  29  |  2   |  7.781   |  7.781   | 13668.414 | 3877.311 |  lambda  |   +0.00   |
----------------------------------------------------------------------------------

              | INCREMENTO DE CARGA |     CARGA TOTAL     |         PASSO        |
| CASO | ITER |  ATIVA   |  REATIVA |  ATIVA   |  REATIVA | VARIÁVEL | VALOR [%] |
----------------------------------------------------------------------------------
|  30  |  2   |  7.781   |  7.781   | 13668.414 | 3877.311 |  lambda  |   +0.00   |
----------------------------------------------------------------------------------
|  31  |  2   |  7.781   |  7.781   | 13668.414 | 3877.311 |  lambda  |   +0.00   |
----------------------------------------------------------------------------------
|  32  |  2   |  7.781   |  7.781   | 13668.414 | 3877.311 |  lambda  |   +0.00   |
----------------------------------------------------------------------------------
|  33  |  2   |  7.781   |  7.781   | 13668.414 | 3877.311 |  lambda  |   +0.00   |
----------------------------------------------------------------------------------
|  34  |  2   |  7.781   |  7.781   | 13668.414 | 3877.311 |  lambda  |   +0.00   |
----------------------------------------------------------------------------------

              | INCREMENTO DE CARGA |     CARGA TOTAL     |         PASSO        |
| CASO | ITER |  ATIVA   |  REATIVA |  ATIVA   |  REATIVA | VARIÁVEL | VALOR [%] |
----------------------------------------------------------------------------------
|  35  |  1   |  7.781   |  7.781   | 13668.414 | 3877.311 |  lambda  |   +0.00   |
----------------------------------------------------------------------------------
|  36  |  1   |  7.781   |  7.781   | 13668.414 | 3877.311 |  lambda  |   +0.00   |
----------------------------------------------------------------------------------
|  37  |  1   |  7.781   |  7.781   | 13668.414 | 3877.311 |  lambda  |   +0.00   |
----------------------------------------------------------------------------------
|  38  |  0   |  7.781   |  7.781   | 13668.414 | 3877.311 |  lambda  |   +0.00   |
----------------------------------------------------------------------------------
|  39  |  0   |  7.781   |  7.781   | 13668.414 | 3877.311 |  lambda  |   +0.00   |
----------------------------------------------------------------------------------

----------------------------------------------------------------------------------



fim do relatório do sistema 107-Barras